iidm/iidm-modification/src/test/resources/eurostag-remove-HVDC-Line-LCC-MCS.xml
<?xml version="1.0" encoding="UTF-8"?>
<iidm:network xmlns:iidm="http://www.powsybl.org/schema/iidm/1_9" id="hvdctest" caseDate="2016-06-27T16:34:55.930+02:00"
              forecastDistance="0" sourceFormat="test" minimumValidationLevel="STEADY_STATE_HYPOTHESIS">
    <iidm:substation id="S1" country="FR">
        <iidm:voltageLevel id="VL1" nominalV="400.0" topologyKind="BUS_BREAKER">
            <iidm:busBreakerTopology>
                <iidm:bus id="B1"/>
            </iidm:busBreakerTopology>
        </iidm:voltageLevel>
    </iidm:substation>

    <iidm:substation id="S2" country="FR">
        <iidm:voltageLevel id="VL2" nominalV="400.0" topologyKind="NODE_BREAKER">
            <iidm:nodeBreakerTopology>
                <iidm:busbarSection id="BBS1" name="BusbarSection" node="0"/>
                <iidm:switch id="DISC_BBS1_BK1" name="Disconnector" kind="DISCONNECTOR" retained="false" open="false"
                             node1="0" node2="1"/>
                <iidm:switch id="BK1" name="Breaker" kind="BREAKER" retained="true" open="false" node1="1" node2="2"/>
                <iidm:switch id="DISC_BBS1_BK2" name="Disconnector" kind="DISCONNECTOR" retained="false" open="false"
                             node1="0" node2="3"/>
                <iidm:switch id="BK2" name="Breaker" kind="BREAKER" retained="true" open="false" node1="3" node2="4"/>
                <iidm:switch id="DISC_BBS1_BK3" name="Disconnector" kind="DISCONNECTOR" retained="false" open="false"
                             node1="0" node2="5"/>
                <iidm:switch id="BK3" name="Breaker" kind="BREAKER" retained="true" open="false" node1="5" node2="6"/>
            </iidm:nodeBreakerTopology>
            <iidm:shunt id="C2_Filter1" name="Filter 3" sectionCount="1" voltageRegulatorOn="false" node="4" q="12.5">
                <iidm:shuntLinearModel bPerSection="3.0E-5" maximumSectionCount="1"/>
            </iidm:shunt>
            <iidm:shunt id="C2_Filter2" name="Filter 4" sectionCount="1" voltageRegulatorOn="false"
                        node="6" q="12.5">
                <iidm:shuntLinearModel bPerSection="4.0E-5" maximumSectionCount="1"/>
            </iidm:shunt>
        </iidm:voltageLevel>
    </iidm:substation>
</iidm:network>
